module powerflow;
#include "library.glm"
#include "network.glm"
#include "geodata.glm"
#include "lateral.glm"
